./hiResApo-5t6d_3ur6_postdocking_ligand1.pdb
 OpenBabel11201619473D

 41 43  0  0  0  0  0  0  0  0999 V2000
  -23.3420   20.5470  -36.2750 C   0  0  0  0  0
  -24.1040   19.7170  -35.2720 C   0  0  0  0  0
  -23.6580   19.6440  -34.0500 N   0  0  0  0  0
  -24.2770   18.9220  -32.9320 C   0  0  0  0  0
  -24.1080   19.6970  -31.6100 C   0  0  0  0  0
  -23.1740   20.7330  -31.7540 O   0  0  0  0  0
  -22.3680   20.4640  -31.2420 H   0  0  0  0  0
  -23.7480   17.4670  -32.8620 C   0  0  0  0  0
  -22.9340   17.1700  -31.5790 C   0  0  0  0  0
  -21.4120   17.2690  -31.7900 C   0  0  0  0  0
  -20.8630   15.8730  -31.4790 C   0  0  0  0  0
  -22.0110   15.0710  -31.1040 N   0  0  0  0  0
  -23.0990   15.7530  -31.1490 C   0  0  0  0  0
  -24.3200   15.1890  -30.7890 O   0  0  0  0  0
  -24.9720   14.8620  -31.4910 H   0  0  0  0  0
  -25.2860   19.0750  -35.6370 O   0  0  0  0  0
  -26.0770   19.0100  -35.0060 H   0  0  0  0  0
  -21.9710   19.8920  -36.5900 C   0  0  0  0  0
  -21.6080   19.8740  -38.0980 C   0  0  0  0  0
  -22.0190   18.5200  -38.7450 C   0  0  0  0  0
  -20.8500   17.5290  -38.7990 C   0  0  0  0  0
  -19.6790   18.0720  -39.6430 C   0  0  0  0  0
  -19.5890   19.6110  -39.6430 C   0  0  0  0  0
  -20.1060   20.2030  -38.3280 C   0  0  0  0  0
  -23.1730   21.9110  -35.7440 N   0  0  0  0  0
  -22.1600   22.1140  -35.5740 H   0  0  0  0  0
  -23.7860   23.1320  -36.8300 S   0  0  0  0  0
  -24.0110   24.4410  -36.1190 O   0  0  0  0  0
  -25.0900   22.6580  -37.4100 O   0  0  0  0  0
  -22.6000   23.3590  -38.1510 C   0  0  0  0  0
  -21.5750   24.4660  -37.8610 C   0  0  0  0  0
  -20.1290   23.9580  -37.7560 C   0  0  0  0  0
  -19.6010   24.1350  -36.4410 O   0  0  0  0  0
  -19.7380   23.2320  -35.3750 C   0  0  0  0  0
  -20.4710   23.6400  -34.2540 C   0  0  0  0  0
  -20.6550   22.7780  -33.1690 C   0  0  0  0  0
  -20.1010   21.4850  -33.1900 C   0  0  0  0  0
  -19.3700   21.0740  -34.3110 C   0  0  0  0  0
  -19.1860   21.9370  -35.3960 C   0  0  0  0  0
  -20.2560   20.5810  -32.1270 O   0  0  0  0  0
  -19.7250   20.7790  -30.8220 C   0  0  0  0  0
 18  1  1  0  0  0
  1 25  1  0  0  0
  1  2  1  0  0  0
 16  2  1  0  0  0
  2  3  2  0  0  0
  3  4  1  0  0  0
  4  8  1  0  0  0
  4  5  1  0  0  0
  6  5  1  0  0  0
  6  7  1  0  0  0
  8  9  1  0  0  0
 10  9  1  0  0  0
  9 13  1  0  0  0
 10 11  2  0  0  0
 11 12  1  0  0  0
 13 12  2  0  0  0
 13 14  1  0  0  0
 15 14  1  0  0  0
 16 17  1  0  0  0
 19 18  1  0  0  0
 20 19  1  0  0  0
 24 19  1  0  0  0
 21 20  1  0  0  0
 22 21  1  0  0  0
 23 22  1  0  0  0
 23 24  1  0  0  0
 27 25  1  0  0  0
 25 26  1  0  0  0
 30 27  1  0  0  0
 29 27  2  0  0  0
 27 28  2  0  0  0
 30 31  1  0  0  0
 31 32  1  0  0  0
 32 33  1  0  0  0
 33 34  1  0  0  0
 39 34  2  0  0  0
 34 35  1  0  0  0
 35 36  2  0  0  0
 37 36  1  0  0  0
 38 37  2  0  0  0
 37 40  1  0  0  0
 39 38  1  0  0  0
 40 41  1  0  0  0
M  END
